Version 4.1
SHEET 1 2268 792
WIRE 64 -384 64 -416
WIRE 656 -368 624 -368
WIRE 832 -368 800 -368
WIRE 1008 -368 976 -368
WIRE 1184 -368 1152 -368
WIRE 1328 -368 1296 -368
WIRE 1504 -368 1472 -368
WIRE 1952 -368 1920 -368
WIRE 624 -336 624 -368
WIRE 800 -336 800 -368
WIRE 976 -336 976 -368
WIRE 1152 -336 1152 -368
WIRE 1296 -336 1296 -368
WIRE 1472 -336 1472 -368
WIRE 1920 -336 1920 -368
WIRE 64 -256 64 -304
WIRE 64 -256 -208 -256
WIRE 624 -208 624 -256
WIRE 800 -208 800 -256
WIRE 976 -208 976 -256
WIRE 1152 -208 1152 -256
WIRE 1296 -208 1296 -256
WIRE 1472 -208 1472 -256
WIRE 1920 -208 1920 -256
WIRE -208 -160 -208 -256
WIRE -160 -160 -208 -160
WIRE 64 -160 64 -256
WIRE -32 -144 -96 -144
WIRE 16 -144 -32 -144
WIRE -160 -128 -192 -128
WIRE 64 -32 64 -64
WIRE 128 -32 64 -32
WIRE 176 -32 128 -32
WIRE 368 -32 288 -32
WIRE 448 -32 368 -32
WIRE 704 -32 448 -32
WIRE 816 -32 704 -32
WIRE 992 -32 912 -32
WIRE 64 -16 64 -32
WIRE 288 -16 288 -32
WIRE 704 0 704 -32
WIRE 992 0 992 -32
WIRE 448 16 448 -32
WIRE 896 48 896 16
WIRE 176 64 176 -32
WIRE 176 64 112 64
WIRE 240 64 176 64
WIRE 656 80 624 80
WIRE 64 112 64 80
WIRE 288 112 288 80
WIRE 288 112 64 112
WIRE 64 144 64 112
WIRE 448 144 448 80
WIRE 704 144 704 96
WIRE 704 144 448 144
WIRE 992 144 992 80
WIRE 992 144 704 144
WIRE 448 160 448 144
FLAG 1152 -208 0
FLAG 64 -256 nodo_pd
FLAG -128 -176 Vcc
FLAG -128 -112 Vee
FLAG -192 -128 bias
FLAG 1008 -368 bias
FLAG 624 -208 0
FLAG 800 -208 0
FLAG 656 -368 Vcc
FLAG 832 -368 Vee
FLAG 976 -208 0
FLAG 1184 -368 Vd
FLAG 64 -416 Vd
FLAG 128 -32 nodo_x
FLAG 448 160 0
FLAG 368 -32 nodo_int
FLAG 1296 -208 0
FLAG 1328 -368 Vdd
FLAG 64 144 Vdd
FLAG -32 -144 gate
FLAG 1472 -208 0
FLAG 1504 -368 select
FLAG 896 48 select
FLAG 992 -32 nodo_out
FLAG 1920 -208 0
FLAG 1952 -368 reset
FLAG 624 80 reset
SYMBOL current 64 -304 R180
WINDOW 0 24 80 Left 2
WINDOW 3 24 0 Left 2
WINDOW 123 0 0 Left 0
WINDOW 39 0 0 Left 0
SYMATTR InstName Iphoto
SYMATTR Value {Iph}
SYMBOL voltage 1152 -352 R0
SYMATTR InstName VD
SYMATTR Value {VD}
SYMBOL OpAmps\\UniversalOpAmp2 -128 -144 R0
SYMATTR InstName U1
SYMBOL voltage 976 -352 R0
SYMATTR InstName VB1
SYMATTR Value {VBias}
SYMBOL voltage 624 -352 R0
SYMATTR InstName VCC1
SYMATTR Value 5
SYMBOL voltage 800 -352 R0
SYMATTR InstName VEE1
SYMATTR Value -5
SYMBOL nmos 16 -64 M180
SYMATTR InstName M1
SYMATTR Value NMOS1
SYMATTR SpiceLine L={LMOS} W={WMOS}
SYMBOL pmos 240 -16 R0
SYMATTR InstName MB
SYMATTR Value PMOS1
SYMATTR SpiceLine L={LMOSC} W={WMOSC}
SYMBOL pmos 112 -16 M0
SYMATTR InstName MA
SYMATTR Value PMOS1
SYMATTR SpiceLine L={LMOSC} W={WMOSC}
SYMBOL voltage 1296 -352 R0
SYMATTR InstName VDD
SYMATTR Value {VDD}
SYMBOL cap 432 16 R0
SYMATTR InstName Cint
SYMATTR Value {Cint}
SYMBOL voltage 1472 -352 R0
SYMATTR InstName VS
SYMATTR Value PULSE(0 5 800u 1n 1n 100u 2m)
SYMBOL res 976 -16 R0
SYMATTR InstName Rout
SYMATTR Value {Rout}
SYMBOL nmos 656 0 R0
SYMATTR InstName MR
SYMATTR Value NMOS1
SYMATTR SpiceLine L={LMOS} W={WMOS}
SYMBOL voltage 1920 -352 R0
SYMATTR InstName VR
SYMATTR Value PULSE(0 5 0 1n 1n 20u 2m)
SYMBOL nmos 816 16 R270
SYMATTR InstName MS
SYMATTR Value NMOS1
SYMATTR SpiceLine L={LMOS} W={WMOS}
TEXT -960 32 Left 2 ;Corriente de medida del fotodiodo
TEXT -960 64 Left 2 !.param Iph=100n
TEXT -960 -88 Left 2 ;Tensiones de excitaciˇn y polarizaciˇn
TEXT -960 -56 Left 2 !.param VBias=2\n.param VD=2\n.param VDD=5
TEXT -960 -208 Left 2 !.model PMOS1 PMOS(VTO=-0.7 KP=100u LAMBDA=0.02)
TEXT -960 -392 Left 2 !.param WMOS=20u\n.param LMOS=2u
TEXT -960 -424 Left 2 ;Parßmetros de los transistores M1, Select y Reset
TEXT -960 -336 Left 2 !.model NMOS1 NMOS(Vto=0.7 Kp=100u Lambda=0.02)
TEXT -960 104 Left 2 ;Resistencia de salida
TEXT -960 128 Left 2 !.param Rout=1G
TEXT -960 168 Left 2 ;Condensador de integraciˇn
TEXT -960 200 Left 2 !.param Cint=100p
TEXT -960 248 Left 2 ;Condiciˇn inicial de descarga
TEXT -960 280 Left 2 !.ic V(nodo_int)=0
TEXT -960 352 Left 2 !.tran 0 2m uic
TEXT -960 320 Left 2 ;Simulaciˇn Transitorio (sin .op)
TEXT -960 -296 Left 2 ;Parßmetros de los transistores del Current mirror
TEXT -960 -264 Left 2 !.param WMOSC=20u\n.param LMOSC=2u
TEXT -272 -592 Left 2 ;Archivo para tomar medidas a comparar con el resto de circuitos\nCircuito BGMI + Transistor Reset + Transistor Select
TEXT 592 -592 Left 2 ;MÚtricas:\n- Consumo de potencia\n- Velocidad\n- Amplitud de salida\n- Tensiˇn media del fotodiodo
TEXT -960 -464 Left 2 ;Parßmetros fijos del circuito
TEXT -960 -128 Left 2 ;Parßmetros globales de simulaciˇn
TEXT -288 272 Left 2 ;Medidas de Velocidad
TEXT -288 304 Left 2 !.meas TRAN V1 FIND V(nodo_int) AT 200u\n.meas TRAN V2 FIND V(nodo_int) AT 800u\n.meas TRAN SLOPE PARAM (V2-V1)/(600u)
TEXT -288 432 Left 2 ;Medidas de Amplitud
TEXT -288 464 Left 2 !.meas TRAN VINT800 FIND V(nodo_int) AT 800u\n.meas TRAN VOUT850 FIND V(nodo_out) AT 850u
TEXT 368 264 Left 2 ;Medida de polarizaciˇn del detector
TEXT 368 296 Left 2 !.meas TRAN VPDAVG AVG V(nodo_pd) FROM 100u TO 800u
TEXT 368 368 Left 2 ;Medidas de Consumo de Potencia (consumo de integraciˇn pura)
TEXT 368 408 Left 2 !.meas TRAN IVD   AVG I(VD)   FROM 100u TO 800u\n.meas TRAN IVDD  AVG I(VDD)  FROM 100u TO 800u\n.meas TRAN IVCC  AVG I(VCC1) FROM 100u TO 800u\n.meas TRAN IVEE  AVG I(VEE1) FROM 100u TO 800u\n.meas TRAN PBGMI PARAM abs(VD*IVD)+abs(VDD*IVDD)+abs(5*IVCC)+abs(5*IVEE)
