Version 4.1
SHEET 1 880 916
WIRE 304 112 144 112
WIRE 144 160 144 112
WIRE -80 176 -224 176
WIRE 96 176 -80 176
WIRE -224 224 -224 176
WIRE 96 224 -64 224
WIRE 304 336 304 112
WIRE -64 384 -64 224
WIRE 288 384 -64 384
WIRE 464 384 384 384
WIRE 480 384 464 384
WIRE -64 416 -64 384
WIRE 480 432 480 384
WIRE -64 528 -64 496
WIRE -224 640 -224 304
WIRE -64 640 -64 608
WIRE -64 640 -224 640
WIRE 144 640 144 240
WIRE 144 640 -64 640
WIRE 480 640 480 512
WIRE 480 640 144 640
WIRE -64 656 -64 640
FLAG -64 656 0
FLAG 464 384 nodo_int
FLAG -64 384 nodo_pd
FLAG 304 112 gate
FLAG -80 176 bias
DATAFLAG -160 176 ""
DATAFLAG -16 224 ""
DATAFLAG 144 112 ""
SYMBOL e 144 144 R0
SYMATTR InstName EAMP1
SYMATTR Value {EGain}
SYMBOL voltage -224 208 R0
SYMATTR InstName VB1
SYMATTR Value {VBias}
SYMBOL current -64 416 R0
WINDOW 0 24 80 Left 2
WINDOW 3 24 0 Left 2
WINDOW 123 0 0 Left 0
WINDOW 39 0 0 Left 0
SYMATTR InstName Iphoto1
SYMATTR Value {Iph}
SYMBOL nmos 384 336 R90
SYMATTR InstName M1
SYMATTR Value NMOS1
SYMATTR SpiceLine L={LMOS} W={WMOS}
SYMBOL voltage -64 512 R0
SYMATTR InstName Vdd1
SYMATTR Value {Vdd}
SYMBOL voltage 480 416 R0
SYMATTR InstName V1
SYMATTR Value 5
TEXT -168 -8 Left 2 ;Etapa 1: Verificar la realimentación con amplificador
TEXT -976 80 Left 2 !.param Iph=100n
TEXT -976 16 Left 2 ;Medida del fotodiodo
TEXT -976 120 Left 2 !.step param Iph list 1n 10n 100n
TEXT -976 240 Left 2 !.param WMOS=20u\n.param LMOS=2u\n.model NMOS1 NMOS(VTO=0.7 KP=100u LAMBDA=0.02)
TEXT -976 200 Left 2 ;Parámetros de M1
TEXT -984 376 Left 2 !.param VBias=2
TEXT -984 336 Left 2 ;Tensión de polarización del amplificador
TEXT -984 536 Left 2 ;Simulación, se espera observar Vpd~VB \npara ganancias grandes de EAMP
TEXT -984 600 Left 2 !.tran 10u
TEXT -984 632 Left 2 !.meas TRAN VBIAS FIND V(bias) AT 1u\n.meas TRAN VPD FIND V(nodo_pd) AT 1u\n.meas TRAN VG FIND V(gate) AT 1u\n.meas TRAN VINT FIND V(nodo_int) AT 1u
TEXT -976 48 Left 2 !.param Vdd=2
TEXT -984 464 Left 2 !.param EGain=1000
TEXT -984 496 Left 2 !.step param EGain list 2 1000
TEXT -984 432 Left 2 ;Configuración del Amplificador EAMP
