Version 4.1
SHEET 1 1592 784
WIRE -80 -16 -128 -16
WIRE -288 64 -432 64
WIRE -128 64 -128 -16
WIRE -128 64 -192 64
WIRE 112 64 -128 64
WIRE -432 80 -432 64
WIRE 112 128 112 64
WIRE -128 144 -128 64
WIRE -272 176 -272 112
WIRE -432 208 -432 160
WIRE -272 288 -272 256
WIRE -128 288 -128 208
WIRE 112 288 112 208
WIRE -432 336 -432 288
FLAG -128 288 0
FLAG -272 288 0
FLAG 112 288 0
FLAG -80 -16 nodo_int
FLAG -432 336 0
DATAFLAG -128 -16 ""
SYMBOL current -432 160 R180
WINDOW 0 24 80 Left 2
WINDOW 3 24 0 Left 2
SYMATTR InstName Iphoto
SYMATTR Value {Iph}
SYMBOL nmos -192 112 M270
SYMATTR InstName M1
SYMATTR Value NMOS1
SYMATTR SpiceLine W={WMOS} L={LMOS}
SYMBOL cap -144 144 R0
SYMATTR InstName Cint
SYMATTR Value {Cint}
SYMBOL voltage -272 160 R0
WINDOW 3 24 44 Left 2
SYMATTR Value {VBias}
SYMATTR InstName VB
SYMBOL res 128 224 R180
WINDOW 0 36 76 Left 2
WINDOW 3 36 40 Left 2
SYMATTR InstName Rleak
SYMATTR Value {Rleak}
SYMBOL voltage -432 192 R0
WINDOW 123 0 0 Left 0
WINDOW 39 0 0 Left 0
SYMATTR InstName Vdd
SYMATTR Value 5
TEXT -496 -192 Left 2 ;Etapa 1: \nDetector + transistor de inyecciˇn + condensador\nVersiˇn mÝnima del circuito de inyecciˇn directa (DI)\npara comprobar si la corriente se integra correctamente
TEXT -1248 80 Left 2 !.model NMOS1 NMOS(Vto={Vth} Kp=100u Lambda=0.02)
TEXT -1248 -8 Left 2 !.param WMOS=20u\n.param LMOS=2u
TEXT -1224 -176 Left 2 ;Modelar NMOS:\n1. Ctrl + clic derecho: \nEso deberÝa abrir el editor completo de atributos\n2. Campo SpiceLine -> W={WMOS} L={LMOS}\n3. Directiva con parßmetros (.param)
TEXT -1240 280 Left 2 !.tran 0 20m
TEXT -1240 160 Left 2 ;Simulaciˇn inicial: Transitorio\nSi todo estß bien:\nLa tensiˇn del nodo integrador cambiarß \naproximadamente linealmente
TEXT -1240 384 Left 2 !.ic V(nodo_int)=0
TEXT -1240 352 Left 2 ;Condiciˇn inicial o descarga
TEXT -1248 512 Left 2 !.param VBias=2
TEXT -1248 536 Left 2 !.param Iph=10n
TEXT -1248 560 Left 2 !.param Vth=0.7
TEXT -1248 440 Left 2 ;Para experimentar con valores variables, primero se declaran las variables en \ndirectrices .param y se implementan en los componentes del circuito.
TEXT -1248 608 Left 2 ;Una vez declaradas, se configura entre quÚ valores va a saltar cada parßmetro con .step.\nPara hacer un experimento, se deja sˇlo un .step sin comentar.
TEXT -1256 672 Left 2 ;.step param VBias list 1.5 2 2.5 3
TEXT -1256 704 Left 2 ;.step param Vth list 0.5 0.7 0.9 1.1
TEXT -1256 736 Left 2 !.step param Iph list 0 1n 10n 100n
TEXT -992 512 Left 2 !.param Cint=100p
TEXT -992 552 Left 2 !.param Rleak=1G
TEXT -160 456 Left 2 ;El objetivo de las medidas es obtener y comparar las pendientes para cada valor de Iph. \nEl resultado es una relaciˇn de aproximadamente 0:1:10:100
TEXT -160 520 Left 2 !.meas TRAN V1 FIND V(nodo_int) AT 5u
TEXT -160 560 Left 2 !.meas TRAN V2 FIND V(nodo_int) AT 20u
TEXT -160 600 Left 2 !.meas tran slope PARAM (V2-V1)/(15u)
TEXT -832 672 Left 2 ;Para ver cˇmo afectan VB y VTO sobre la \nlinealidad y transferencia de corriente
TEXT -832 736 Left 2 ;Para caracterizar
