Version 4.1
SHEET 1 880 680
WIRE 144 -496 0 -496
WIRE 272 -496 144 -496
WIRE 0 -432 0 -496
WIRE 272 -432 272 -496
WIRE 128 -416 48 -416
WIRE 224 -416 128 -416
WIRE 624 -416 592 -416
WIRE 592 -384 592 -416
WIRE 128 -304 128 -416
WIRE 272 -304 272 -336
WIRE 272 -304 128 -304
WIRE 592 -272 592 -304
WIRE 0 -224 0 -336
WIRE 128 -224 0 -224
WIRE 0 -192 0 -224
WIRE 272 -192 272 -304
WIRE 128 -112 128 -224
WIRE 128 -112 48 -112
WIRE 224 -112 128 -112
WIRE 272 -64 272 -96
WIRE 272 -64 256 -64
WIRE 272 -48 272 -64
WIRE 0 64 0 -96
WIRE 272 64 272 32
WIRE 272 64 0 64
WIRE 0 80 0 64
FLAG 144 -496 VDD
FLAG 0 80 0
FLAG 256 -64 nodo_pd
FLAG 128 -416 nodo_x
FLAG 128 -112 nodo_y
FLAG 592 -272 0
FLAG 624 -416 VDD
SYMBOL current 272 -48 R0
SYMATTR InstName Iphoto
SYMATTR Value {Iph}
SYMBOL nmos 48 -192 M0
SYMATTR InstName Mn1
SYMATTR Value NMOS1
SYMATTR SpiceLine L={LMOSN} W={WMOSN}
SYMBOL nmos 224 -192 R0
SYMATTR InstName Mn2
SYMATTR Value NMOS1
SYMATTR SpiceLine L={LMOSN} W={WMOSN}
SYMBOL pmos 48 -336 R180
SYMATTR InstName Mp1
SYMATTR Value PMOS1
SYMATTR SpiceLine L={LMOSP} W={WMOSP}
SYMBOL pmos 224 -336 M180
SYMATTR InstName Mp2
SYMATTR Value PMOS1
SYMATTR SpiceLine L={LMOSP} W={WMOSP}
SYMBOL voltage 592 -400 R0
SYMATTR InstName Vdd
SYMATTR Value {Vdd}
TEXT -104 -584 Left 2 ;Etapa 1: núcleo CMI sin integración
TEXT -976 -576 Left 2 ;Corriente de medida del fotodiodo
TEXT -976 -544 Left 2 !.param Iph=100n
TEXT -976 -504 Left 2 !.step param Iph list 1n 10n 100n
TEXT -976 -408 Left 2 !.param WMOSP=20u\n.param LMOSP=2u
TEXT -976 -440 Left 2 ;Parámetros de los transistores Mpi
TEXT -976 -352 Left 2 !.model PMOS1 PMOS(Vto=-0.7 Kp=100u Lambda=0.02)
TEXT -976 -264 Left 2 !.param WMOSN=20u\n.param LMOSN=2u
TEXT -976 -296 Left 2 ;Parámetros de los transistores Mni
TEXT -976 -208 Left 2 !.model NMOS1 NMOS(Vto=0.7 Kp=100u Lambda=0.02)
TEXT -976 -664 Left 2 ;Tensión de alimentación
TEXT -976 -632 Left 2 !.param Vdd=5
TEXT -976 -104 Left 2 ;.op
TEXT -984 320 Left 2 !.tran 0 10u
TEXT -976 -160 Left 2 ;Simulación en punto de operación para \ncomprobar polarización de espejos
TEXT -984 256 Left 2 ;Simulación del transitorio para \ncomprobar impedancia de entrada
TEXT -984 8 Left 2 !.meas TRAN VPD FIND V(nodo_pd) AT 1u\n.meas TRAN VX FIND V(nodo_x) AT 1u\n.meas TRAN VY FIND V(nodo_y) AT 1u\n.meas TRAN IMN1 FIND ID(Mn1) AT 1u\n.meas TRAN IMP1 FIND ID(Mp1) AT 1u\n.meas TRAN IMP2 FIND ID(Mp2) AT 1u\n.meas TRAN IMN2 FIND ID(Mn2) AT 1u
TEXT -984 -32 Left 2 ;Medidas para comprobar polarización de CMs e impedancia de entrada
