Version 4.1
SHEET 1 1252 1232
WIRE 480 112 320 112
WIRE 320 160 320 112
WIRE 96 176 -240 176
WIRE 272 176 96 176
WIRE -240 224 -240 176
WIRE 272 224 112 224
WIRE 480 336 480 112
WIRE 112 384 112 224
WIRE 464 384 112 384
WIRE 688 384 560 384
WIRE 720 384 688 384
WIRE 112 432 112 384
WIRE 720 464 720 384
WIRE 112 528 112 512
WIRE -240 640 -240 304
WIRE 112 640 112 608
WIRE 112 640 -240 640
WIRE 320 640 320 240
WIRE 320 640 112 640
WIRE 720 640 720 528
WIRE 720 640 320 640
WIRE 112 656 112 640
FLAG 112 656 0
FLAG 112 384 nodo_pd
FLAG 480 112 gate
FLAG 96 176 bias
FLAG 688 384 nodo_int
DATAFLAG -176 176 ""
DATAFLAG 160 224 ""
DATAFLAG 320 112 ""
SYMBOL e 320 144 R0
SYMATTR InstName EAMP
SYMATTR Value {EGain}
SYMBOL voltage -240 208 R0
SYMATTR InstName VB
SYMATTR Value {VBias}
SYMBOL current 112 432 R0
WINDOW 0 24 80 Left 2
WINDOW 3 24 0 Left 2
WINDOW 123 0 0 Left 0
WINDOW 39 0 0 Left 0
SYMATTR InstName Iphoto
SYMATTR Value {Iph}
SYMBOL nmos 560 336 R90
SYMATTR InstName M1
SYMATTR Value NMOS1
SYMATTR SpiceLine L={LMOS} W={WMOS}
SYMBOL voltage 112 512 R0
SYMATTR InstName Vdd
SYMATTR Value {Vdd}
SYMBOL cap 704 464 R0
SYMATTR InstName Cint
SYMATTR Value {Cint}
SYMBOL res 128 848 R0
SYMATTR InstName Rload
SYMATTR Value {Rload}
SYMBOL voltage 16 848 R0
SYMATTR InstName V1
SYMATTR Value 5
TEXT -376 -32 Left 2 ;Etapa 3: Coordinaci de regulaci de V(nodo_pd) por realimentaci negativa \ncon integraci de corriente de fotodiodo
TEXT -976 80 Left 2 !.param Iph=100n
TEXT -976 16 Left 2 ;Medida del fotodiodo
TEXT -976 120 Left 2 !.step param Iph list 1n 10n 100n
TEXT -976 240 Left 2 !.param WMOS=20u\n.param LMOS=2u\n.model NMOS1 NMOS(VTO=0.7 KP=100u LAMBDA=0.02)
TEXT -976 200 Left 2 ;Par疥etros de M1
TEXT -984 376 Left 2 !.param VBias=2
TEXT -984 336 Left 2 ;Tensi de polarizaci del amplificador
TEXT -984 840 Left 2 ;Medidas para comprobar que Vpd~VB \npara ganancias grandes de EAMP
TEXT -984 1216 Left 2 !.tran 0 50m
TEXT -984 904 Left 2 !.meas TRAN VBIAS FIND V(bias) AT 1u\n.meas TRAN VPD FIND V(nodo_pd) AT 1u\n.meas TRAN VG FIND V(gate) AT 1u\n.meas TRAN VINT FIND V(nodo_int) AT 1u
TEXT -976 48 Left 2 !.param Vdd=2
TEXT -984 464 Left 2 !.param EGain=1000
TEXT -984 496 Left 2 ;.step param EGain list 2 10 100 1000
TEXT -984 432 Left 2 ;Configuraci del Amplificador EAMP
TEXT -984 608 Left 2 !.ic V(nodo_int)={Vc_ini}
TEXT -984 544 Left 2 ;Condensador de integraci (con condici inicial de carga)
TEXT -984 576 Left 2 !.param Cint=100p
TEXT -984 1064 Left 2 !.meas TRAN V1 FIND V(nodo_int) AT 50u\n.meas TRAN V2 FIND V(nodo_int) AT 200u\n.meas TRAN slope PARAM (V2-V1)/(150u)
TEXT -984 1032 Left 2 ;Medidas para comprobar efecto de integraci
TEXT -984 712 Left 2 ;Resistencia de carga para demostraci \ncompleta de la acci de la realimentaci
TEXT -984 776 Left 2 !.param Rload=100k
TEXT -992 1184 Left 2 ;Simulaci del transitorio
TEXT -984 640 Left 2 !.param Vc_ini=0
TEXT -984 672 Left 2 !.step param Vc_ini list 0 2 3 4 5
TEXT -320 760 Left 2 ;Conclusi: La p駻dida de polarizaci aparece cuando el nodo integrador se queda sin margen para que M1 siga regulando.
