Version 4.1
SHEET 1 1756 1184
WIRE 336 224 144 224
WIRE 336 240 336 224
WIRE 288 256 192 256
WIRE 192 272 192 256
WIRE 768 336 336 336
WIRE 144 368 144 224
WIRE 192 368 192 352
WIRE 192 368 144 368
WIRE 192 384 192 368
WIRE 240 464 160 464
WIRE 384 464 240 464
WIRE 768 464 768 336
WIRE 768 464 608 464
WIRE 912 464 768 464
WIRE 1088 464 1008 464
WIRE 1248 464 1088 464
WIRE 1248 480 1248 464
WIRE 384 496 384 464
WIRE 496 496 384 496
WIRE 384 512 384 496
WIRE 608 512 608 464
WIRE 768 528 768 464
WIRE 992 560 992 512
WIRE 160 576 160 464
WIRE 496 592 496 496
WIRE 496 592 432 592
WIRE 560 592 496 592
WIRE 1248 592 1248 560
WIRE 992 608 992 560
WIRE 384 640 384 608
WIRE 608 640 608 608
WIRE 608 640 384 640
WIRE 384 656 384 640
WIRE 160 768 160 656
WIRE 384 768 384 736
WIRE 384 768 160 768
WIRE 768 768 768 592
WIRE 768 768 384 768
WIRE 992 768 992 688
WIRE 992 768 768 768
WIRE 384 800 384 768
FLAG 384 800 0
FLAG 768 464 nodo_int
FLAG 192 384 0
FLAG 1088 464 nodo_out
FLAG 992 560 select
FLAG 1248 592 0
FLAG 240 464 nodo_pd
SYMBOL voltage 384 640 R0
WINDOW 123 0 0 Left 0
WINDOW 39 0 0 Left 0
SYMATTR InstName Vdd
SYMATTR Value 5
SYMBOL current 160 576 R0
SYMATTR InstName Iphoto
SYMATTR Value {Iph}
SYMBOL cap 752 528 R0
SYMATTR InstName Cint
SYMATTR Value {Cint}
SYMBOL pmos 560 512 R0
SYMATTR InstName M2
SYMATTR Value PMOS1
SYMATTR SpiceLine L={LMOS} W={WMOS}
SYMBOL pmos 432 512 M0
SYMATTR InstName M1
SYMATTR Value PMOS1
SYMATTR SpiceLine L={LMOS} W={WMOS}
SYMBOL voltage 192 256 R0
SYMATTR InstName VR
SYMATTR Value PULSE(0 5 0 1n 1n 20u 2m)
SYMBOL nmos 288 336 M180
SYMATTR InstName M3
SYMATTR Value NMRESET
SYMATTR SpiceLine L={LMOS} W={WMOS}
SYMBOL pmos 912 512 R270
SYMATTR InstName M4
SYMATTR Value PMSELECT
SYMATTR SpiceLine L={LMOS} W={WMOS}
SYMBOL voltage 992 592 R0
SYMATTR InstName VS
SYMATTR Value PULSE(5 0 800u 1n 1n 100u 2m)
SYMBOL res 1232 464 R0
SYMATTR InstName Rout
SYMATTR Value {Rout}
TEXT 64 80 Left 2 ;Archivo para tomar medidas a comparar con el resto de circuitos\nCircuito GMI + Transistor Reset + Transistor Select
TEXT -768 80 Left 2 !.param WMOS=20u\n.param LMOS=2u\n.model PMOS1 PMOS(VTO=-0.7 KP=100u LAMBDA=0.02)
TEXT -768 40 Left 2 ;Parámetros del Current Mirror (PMOS idénticos):
TEXT -776 568 Left 2 !.tran 0 2m uic
TEXT -768 640 Left 2 !.ic V(nodo_int)=0
TEXT -776 608 Left 2 ;Condición inicial de descarga del condensador
TEXT -768 192 Left 2 ;Parámetros del Reset:
TEXT -768 232 Left 2 !.model NMRESET NMOS(VTO=0.7 KP=100u LAMBDA=0.02)
TEXT -768 368 Left 2 !.model PMSELECT PMOS(VTO=-0.7 KP=100u LAMBDA=0.02)
TEXT -768 328 Left 2 ;Parámetros del Select:
TEXT -776 832 Left 2 !.param Rout=1G
TEXT -768 8 Left 2 ;Parámetros fijos del circuito
TEXT -776 496 Left 2 ;Parámetros globales de simulación
TEXT -776 536 Left 2 ;Simulación del Transitorio
TEXT -776 720 Left 2 !.param Iph=100n
TEXT -776 680 Left 2 ;Parámetros del circuito
TEXT -776 752 Left 2 !.param Cint=100p
TEXT -776 800 Left 2 ;Resistencia de salida
TEXT -56 880 Left 2 ;Medidas de Velocidad
TEXT -56 912 Left 2 !.meas TRAN V1 FIND V(nodo_int) AT 200u\n.meas TRAN V2 FIND V(nodo_int) AT 800u\n.meas TRAN SLOPE PARAM (V2-V1)/(600u)
TEXT -56 1040 Left 2 ;Medidas de Amplitud
TEXT -56 1072 Left 2 !.meas TRAN VINT800 FIND V(nodo_int) AT 800u\n.meas TRAN VOUT850 FIND V(nodo_out) AT 850u
TEXT 600 872 Left 2 ;Medida de polarización del detector
TEXT 600 904 Left 2 !.meas TRAN VPDAVG AVG V(nodo_pd) FROM 100u TO 800u
TEXT 600 976 Left 2 ;Medidas de Consumo de Potencia (consumo de integración pura)
TEXT 840 80 Left 2 ;Métricas:\n- Consumo de potencia\n- Velocidad\n- Amplitud de salida\n- Tensión media del fotodiodo
TEXT 600 1008 Left 2 !.meas TRAN IVDD AVG I(Vdd) FROM 100u TO 800u\n.meas TRAN PGMI PARAM abs(5*IVDD)
