Version 4.1
SHEET 1 1112 816
WIRE 336 224 112 224
WIRE 704 224 560 224
WIRE 336 256 336 224
WIRE 448 256 336 256
WIRE 704 256 704 224
WIRE 336 272 336 256
WIRE 560 272 560 224
WIRE 112 336 112 224
WIRE 448 352 448 256
WIRE 448 352 384 352
WIRE 512 352 448 352
WIRE 336 400 336 368
WIRE 560 400 560 368
WIRE 560 400 336 400
WIRE 336 416 336 400
WIRE 112 528 112 416
WIRE 336 528 336 496
WIRE 336 528 112 528
WIRE 704 528 704 320
WIRE 704 528 336 528
WIRE 336 560 336 528
FLAG 336 560 0
FLAG 704 224 nodo_int
FLAG 448 352 gate
SYMBOL voltage 336 400 R0
WINDOW 123 0 0 Left 0
WINDOW 39 0 0 Left 0
SYMATTR InstName Vdd
SYMATTR Value 5
SYMBOL current 112 336 R0
SYMATTR InstName Iphoto
SYMATTR Value {Iph}
SYMBOL cap 688 256 R0
SYMATTR InstName Cint
SYMATTR Value {Cint}
SYMBOL pmos 512 272 R0
SYMATTR InstName M2
SYMATTR Value PMOS1
SYMATTR SpiceLine L={LMOS} W={WMOS}
SYMBOL pmos 384 272 M0
SYMATTR InstName M1
SYMATTR Value PMOS1
SYMATTR SpiceLine L={LMOS} W={WMOS}
TEXT 64 80 Left 2 ;Etapa 2: GMI mÌnimo con condensador de integraciÛn\nObservar la integraciÛn.
TEXT -776 384 Left 2 !.param WMOS=20u\n.param LMOS=2u\n.model PMOS1 PMOS(VTO=-0.7 KP=100u LAMBDA=0.02)
TEXT -776 616 Left 2 !.step param Iph list 1n 10n 100n
TEXT -776 304 Left 2 ;Se sustituye el NMOS de la etapa 1 por PMOS.\nPar·metros del transistor (idÈnticos):
TEXT -768 104 Left 2 ;Se simplifica de nuevo el fotodiodo a una fuente de corriente Iph
TEXT -768 136 Left 2 !.param Iph=100n
TEXT -776 576 Left 2 ;Se simulan diferentes medidas leÌdas
TEXT 64 704 Left 2 !.tran 0 500u
TEXT -776 488 Left 2 ;Se aÒade condensador de integraciÛn
TEXT -776 528 Left 2 !.param Cint=100p
TEXT 56 744 Left 2 !.meas TRAN V1 FIND V(nodo_int) AT 50u\n.meas TRAN V2 FIND V(nodo_int) AT 200u\n.meas TRAN slope PARAM (V2-V1)/(150u)
TEXT 64 664 Left 2 ;Se quiere ver las diferentes rampas de integraciÛn en V(int) y calcular sus pendientes
TEXT -768 248 Left 2 !.ic V(nodo_int)=0
TEXT -776 216 Left 2 ;CondiciÛn inicial de descarga del condensador
