Version 4.1
SHEET 1 2008 1888
WIRE 512 32 352 32
WIRE 352 80 352 32
WIRE 128 96 -208 96
WIRE 304 96 128 96
WIRE -208 144 -208 96
WIRE 304 144 144 144
WIRE 1568 224 1472 224
WIRE 1664 224 1568 224
WIRE 512 256 512 32
WIRE 1472 288 1472 224
WIRE 144 304 144 144
WIRE 496 304 144 304
WIRE 704 304 592 304
WIRE 752 304 704 304
WIRE 912 304 752 304
WIRE 1424 304 912 304
WIRE 1664 336 1664 224
WIRE 144 352 144 304
WIRE 912 384 912 304
WIRE 704 400 704 304
WIRE 1024 416 992 416
WIRE 1056 416 1024 416
WIRE 1056 432 1056 416
WIRE 144 464 144 432
WIRE 992 464 992 416
WIRE 992 464 960 464
WIRE 1472 480 1472 384
WIRE 912 544 912 480
WIRE -208 688 -208 224
WIRE 144 688 144 544
WIRE 144 688 -208 688
WIRE 352 688 352 160
WIRE 352 688 144 688
WIRE 704 688 704 464
WIRE 704 688 352 688
WIRE 912 688 912 624
WIRE 912 688 704 688
WIRE 1056 688 1056 512
WIRE 1056 688 912 688
WIRE 1472 688 1472 560
WIRE 1472 688 1056 688
WIRE 1664 688 1664 416
WIRE 1664 688 1472 688
WIRE 144 704 144 688
FLAG 144 704 0
FLAG 144 304 nodo_pd
FLAG 512 32 gate
FLAG 128 96 bias
FLAG 752 304 nodo_int
FLAG 1568 224 nodo_out
FLAG 1024 416 reset
SYMBOL e 352 64 R0
SYMATTR InstName EAMP
SYMATTR Value {EGain}
SYMBOL voltage -208 128 R0
SYMATTR InstName VB
SYMATTR Value {VBias}
SYMBOL current 144 352 R0
WINDOW 0 24 80 Left 2
WINDOW 3 24 0 Left 2
WINDOW 123 0 0 Left 0
WINDOW 39 0 0 Left 0
SYMATTR InstName Iphoto
SYMATTR Value {Iph}
SYMBOL nmos 592 256 R90
SYMATTR InstName M1
SYMATTR Value NMOS1
SYMATTR SpiceLine L={LMOS} W={WMOS}
SYMBOL voltage 144 448 R0
SYMATTR InstName Vdd
SYMATTR Value {Vdd}
SYMBOL cap 688 400 R0
SYMATTR InstName Cint1
SYMATTR Value {Cint}
SYMBOL res 1648 320 R0
SYMATTR InstName Rload
SYMATTR Value {Rload}
SYMBOL nmos 1424 384 M180
SYMATTR InstName M2
SYMATTR Value NMOS1
SYMBOL pmos 960 384 M0
SYMATTR InstName M3
SYMATTR Value PMOSR
SYMBOL voltage 1056 416 R0
WINDOW 123 0 0 Left 0
WINDOW 39 0 0 Left 0
SYMATTR InstName VR
SYMATTR Value PULSE(5 0 0 1n 1n 1u 1000u)
SYMBOL voltage 912 528 R0
SYMATTR InstName VCarga
SYMATTR Value 5
SYMBOL voltage 1472 464 R0
SYMATTR InstName Vlect
SYMATTR Value 5
TEXT -344 -112 Left 2 ;Etapa 4: Implementación del Source follower y del Reset
TEXT -944 0 Left 2 !.param Iph=100n
TEXT -944 -64 Left 2 ;Medida del fotodiodo
TEXT -944 40 Left 2 !.step param Iph list 1n 10n 100n
TEXT -944 160 Left 2 !.param WMOS=20u\n.param LMOS=2u\n.model NMOS1 NMOS(VTO=0.7 KP=100u LAMBDA=0.02)
TEXT -944 120 Left 2 ;Parámetros de M1
TEXT -952 296 Left 2 !.param VBias=2
TEXT -952 256 Left 2 ;Tensión de polarización del amplificador
TEXT -960 984 Left 2 ;Medidas para comprobar que Vpd~VB \npara ganancias grandes de EAMP
TEXT -960 1816 Left 2 !.tran 0 500u
TEXT -960 1048 Left 2 ;.meas TRAN VBIAS FIND V(bias) AT 1u\n.meas TRAN VPD FIND V(nodo_pd) AT 1u\n.meas TRAN VG FIND V(gate) AT 1u\n.meas TRAN VINT FIND V(nodo_int) AT 1u
TEXT -944 -32 Left 2 !.param Vdd=2
TEXT -952 384 Left 2 !.param EGain=1000
TEXT -952 416 Left 2 ;.step param EGain list 2 10 100 1000
TEXT -952 352 Left 2 ;Configuración del Amplificador EAMP
TEXT -952 528 Left 2 !.ic V(nodo_int)={Vc_ini}
TEXT -952 464 Left 2 ;Condensador de integración (con condición inicial de carga)
TEXT -952 496 Left 2 !.param Cint=100p
TEXT -960 1208 Left 2 ;.meas TRAN V1 FIND V(nodo_int) AT 50u\n.meas TRAN V2 FIND V(nodo_int) AT 200u\n.meas TRAN slope PARAM (V2-V1)/(150u)
TEXT -960 1176 Left 2 ;Medidas para comprobar efecto de integración
TEXT -952 640 Left 2 ;Resistencia de carga
TEXT -952 672 Left 2 !.param Rload=100k
TEXT -968 1784 Left 2 ;Simulación del transitorio
TEXT -952 560 Left 2 !.param Vc_ini=0
TEXT -952 592 Left 2 ;.step param Vc_ini list 0 2 3 4 5
TEXT -960 1320 Left 2 ;Medidas para comprobar si M2 está actuando \ncomo un buffer del valor integrado
TEXT -968 1384 Left 2 ;.meas TRAN VOUT FIND V(nodo_out) AT 50u\n.meas TRAN VINT FIND V(nodo_int) AT 50u\n.meas TRAN VPD FIND V(nodo_pd) AT 50u
TEXT -960 808 Left 2 ;.step param VINTFIX list 0 0.5 1 2 3 4 5
TEXT -960 776 Left 2 !.param VINTFIX=0
TEXT -960 736 Left 2 ;Tensión para fijar nodo_int (test)
TEXT -960 856 Left 2 ;Parámetros del transformador Reset
TEXT -960 896 Left 2 !.model PMOSR PMOS(VTO=-0.7 KP=100u LAMBDA=0.02)
TEXT -960 936 Left 2 ;Lógica del Reset: VR=0V carga Cint, VR=5V integra
TEXT -968 1488 Left 2 ;Medidas para comprobar la carga del condensador mediante Reset y su integración
TEXT -968 1528 Left 2 ;.meas TRAN VPD10  FIND V(nodo_pd)  AT 10u\n.meas TRAN VINT10 FIND V(nodo_int) AT 10u\n \n.meas TRAN VPD50  FIND V(nodo_pd)  AT 50u\n.meas TRAN VINT50 FIND V(nodo_int) AT 50u\n \n.meas TRAN VPD200  FIND V(nodo_pd)  AT 200u\n.meas TRAN VINT200 FIND V(nodo_int) AT 200u
TEXT -704 664 Left 2 ;Rload=1G sin lectura\nRload=100k con lectura
