Version 4.1
SHEET 1 1112 816
WIRE 336 224 112 224
WIRE 704 224 560 224
WIRE 752 224 704 224
WIRE 336 256 336 224
WIRE 448 256 336 256
WIRE 112 272 112 224
WIRE 336 272 336 256
WIRE 560 272 560 224
WIRE 704 272 704 224
WIRE 448 352 448 256
WIRE 448 352 384 352
WIRE 512 352 448 352
WIRE 112 400 112 352
WIRE 704 400 704 352
WIRE 112 512 112 480
WIRE 336 512 336 368
WIRE 336 512 112 512
WIRE 560 512 560 368
WIRE 560 512 336 512
WIRE 704 512 704 480
WIRE 704 512 560 512
WIRE 112 528 112 512
FLAG 112 528 0
FLAG 752 224 out
FLAG 448 352 gate
SYMBOL voltage 112 384 R0
WINDOW 123 0 0 Left 0
WINDOW 39 0 0 Left 0
SYMATTR InstName Vdd1
SYMATTR Value 5
SYMBOL current 112 352 R180
WINDOW 0 24 80 Left 2
WINDOW 3 24 0 Left 2
SYMATTR InstName Iphoto
SYMATTR Value {Iph}
SYMBOL nmos 384 272 M0
SYMATTR InstName M1
SYMATTR Value NMOS1
SYMATTR SpiceLine L={LMOS} W={WMOS}
SYMBOL nmos 512 272 R0
SYMATTR InstName M2
SYMATTR Value NMOS1
SYMATTR SpiceLine L={LMOS} W={WMOS}
SYMBOL res 688 256 R0
SYMATTR InstName R1
SYMATTR Value {Rload}
SYMBOL voltage 704 384 R0
WINDOW 123 0 0 Left 0
WINDOW 39 0 0 Left 0
SYMATTR InstName Vdd2
SYMATTR Value 5
TEXT 64 80 Left 2 ;Etapa 1: GMI mínimo\nVerificar que existe modulación de corriente.
TEXT -768 216 Left 2 !.param WMOS=20u\n.param LMOS=2u\n.model NMOS1 NMOS(VTO=0.7 KP=100u LAMBDA=0.02)
TEXT -776 496 Left 2 !.step param Iph list 1n 10n 100n
TEXT -776 384 Left 2 !.param Rload=100Meg
TEXT -768 184 Left 2 ;Parámetros del transistor (idénticos)
TEXT -768 104 Left 2 ;Se simplifica de nuevo el fotodiodo a una fuente de corriente Iph
TEXT -768 136 Left 2 !.param Iph=100n
TEXT -776 312 Left 2 ;Se simplifica el nodo de integración a una carga \ny la alimentación de M2
TEXT -184 616 Left 2 ;En la simulación se quiere ver V(gate) y V(out). Para corrientes Iph mayores, se deberá ver: \nsubida V(gate) --> subida Vgs(M2) --> subida Ids(M2) --> Diferencia de V(out) entre steps
TEXT -184 680 Left 2 ;.op
TEXT -184 720 Left 2 ;.meas OP Vgate FIND V(gate)\n.meas OP Vout FIND V(out)
TEXT -776 456 Left 2 ;Se simulan diferentes medidas leídas
TEXT 256 712 Left 2 !.meas TRAN Vgate PARAM V(gate)\n.meas TRAN Vout PARAM V(out)\n.meas TRAN Iload AVG I(R1)
TEXT 256 680 Left 2 !.tran 1u
