Version 4.1
SHEET 1 1524 784
WIRE 64 -384 64 -416
WIRE 656 -368 624 -368
WIRE 832 -368 800 -368
WIRE 1008 -368 976 -368
WIRE 1184 -368 1152 -368
WIRE 1328 -368 1296 -368
WIRE 624 -336 624 -368
WIRE 800 -336 800 -368
WIRE 976 -336 976 -368
WIRE 1152 -336 1152 -368
WIRE 1296 -336 1296 -368
WIRE 64 -256 64 -304
WIRE 64 -256 -208 -256
WIRE 624 -208 624 -256
WIRE 800 -208 800 -256
WIRE 976 -208 976 -256
WIRE 1152 -208 1152 -256
WIRE 1296 -208 1296 -256
WIRE -208 -160 -208 -256
WIRE -160 -160 -208 -160
WIRE 64 -160 64 -256
WIRE -32 -144 -96 -144
WIRE 16 -144 -32 -144
WIRE -160 -128 -192 -128
WIRE 64 -32 64 -64
WIRE 128 -32 64 -32
WIRE 176 -32 128 -32
WIRE 368 -32 288 -32
WIRE 448 -32 368 -32
WIRE 64 -16 64 -32
WIRE 288 -16 288 -32
WIRE 448 16 448 -32
WIRE 176 64 176 -32
WIRE 176 64 112 64
WIRE 240 64 176 64
WIRE 64 112 64 80
WIRE 288 112 288 80
WIRE 288 112 64 112
WIRE 448 128 448 80
WIRE 64 144 64 112
FLAG 1152 -208 0
FLAG 64 -256 nodo_pd
FLAG -128 -176 Vcc
FLAG -128 -112 Vee
FLAG -192 -128 bias
FLAG 1008 -368 bias
FLAG 624 -208 0
FLAG 800 -208 0
FLAG 656 -368 Vcc
FLAG 832 -368 Vee
FLAG 976 -208 0
FLAG 1184 -368 Vd
FLAG 64 -416 Vd
FLAG 128 -32 nodo_x
FLAG 448 128 0
FLAG 368 -32 nodo_int
FLAG 1296 -208 0
FLAG 1328 -368 Vdd
FLAG 64 144 Vdd
FLAG -32 -144 gate
SYMBOL current 64 -304 R180
WINDOW 0 24 80 Left 2
WINDOW 3 24 0 Left 2
WINDOW 123 0 0 Left 0
WINDOW 39 0 0 Left 0
SYMATTR InstName Iphoto
SYMATTR Value {Iph}
SYMBOL voltage 1152 -352 R0
SYMATTR InstName VD
SYMATTR Value {VD}
SYMBOL OpAmps\\UniversalOpAmp2 -128 -144 R0
SYMATTR InstName U1
SYMBOL voltage 976 -352 R0
SYMATTR InstName VB1
SYMATTR Value {VBias}
SYMBOL voltage 624 -352 R0
SYMATTR InstName VCC1
SYMATTR Value 5
SYMBOL voltage 800 -352 R0
SYMATTR InstName VEE1
SYMATTR Value -5
SYMBOL nmos 16 -64 M180
SYMATTR InstName M1
SYMATTR Value NMOS1
SYMATTR SpiceLine L={LMOS} W={WMOS}
SYMBOL pmos 240 -16 R0
SYMATTR InstName MB
SYMATTR Value PMOS1
SYMATTR SpiceLine L={LMOS} W={WMOS}
SYMBOL pmos 112 -16 M0
SYMATTR InstName MA
SYMATTR Value PMOS1
SYMATTR SpiceLine L={LMOS} W={WMOS}
SYMBOL voltage 1296 -352 R0
SYMATTR InstName VDD
SYMATTR Value {VDD}
SYMBOL cap 432 16 R0
SYMATTR InstName Cint
SYMATTR Value {Cint}
TEXT -104 -504 Left 2 ;Etapa 2: AŮadir el integrador
TEXT -952 -232 Left 2 ;Corriente de medida del fotodiodo
TEXT -952 -200 Left 2 !.param Iph=100n
TEXT -952 -160 Left 2 !.step param Iph list 1n 10n 100n
TEXT -952 -352 Left 2 ;Tensiones de excitaciůn y polarizaciůn
TEXT -952 -320 Left 2 !.param VBias=2\n.param VD=2\n.param VDD=5
TEXT -952 72 Left 2 !.model PMOS1 PMOS(VTO=-0.7 KP=100u LAMBDA=0.02)
TEXT -952 8 Left 2 !.param WMOS=20u\n.param LMOS=2u
TEXT -952 -24 Left 2 ;ParŠmetros del transistor M1
TEXT -952 104 Left 2 !.model NMOS1 NMOS(Vto=0.7 Kp=100u Lambda=0.02)
TEXT -952 -104 Left 2 ;Resistencia para evitar nodos flotantes
TEXT -952 -80 Left 2 !.param Rload=1G
TEXT -952 160 Left 2 ;Condensador de integraciůn
TEXT -952 192 Left 2 !.param Cint=100p
TEXT -952 240 Left 2 ;Condiciůn inicial de descarga
TEXT -952 272 Left 2 !.ic V(nodo_int)=0
TEXT -952 544 Left 2 !.tran 0 1m uic
TEXT -952 512 Left 2 ;Simulaciůn Transitorio (sin .op)
TEXT -952 336 Left 2 ;Medidas para comprobar integraciůn
TEXT -952 368 Left 2 !.meas TRAN V1 FIND V(nodo_int) AT 200u\n\n.meas TRAN V2 FIND V(nodo_int) AT 800u\n\n.meas TRAN SLOPE PARAM (V2-V1)/(600u)\n\n.meas TRAN VPDAVG AVG V(nodo_pd) FROM 100u TO 800u
